/*--------------------------------*- C++ -*----------------------------------*\
  =========                 |
  \\      /  F ield         | OpenFOAM: The Open Source CFD Toolbox
   \\    /   O peration     | Website:  https://openfoam.org
    \\  /    A nd           | Version:  7
     \\/     M anipulation  |
\*---------------------------------------------------------------------------*/
FoamFile
{
    version     2.0;
    format      ascii;
    class       volVectorField;
    location    "0";
    object      U;
}
// * * * * * * * * * * * * * * * * * * * * * * * * * * * * * * * * * * * * * //

dimensions      [0 1 -1 0 0 0 0];

internalField   uniform (0 0.5 0);

boundaryField
{
    walls
    {
        type            noSlip;
    }
    
    bottom
    {
        type            interstitialInletVelocity;
        inletVelocity   uniform (0 0.5 0);
        value           uniform (0 0.5 0);
        phi             alphaRhoPhi;
        alpha           alpha;
    }
    
    top
    {
        type            pressureInletOutletVelocity;
        value           $internalField;
    }
    
    frontAndBack
    {
        type            symmetry;
    }
}


// ************************************************************************* //
