/*--------------------------------*- C++ -*----------------------------------*\
  =========                 |
  \\      /  F ield         | OpenFOAM: The Open Source CFD Toolbox
   \\    /   O peration     | Website:  https://openfoam.org
    \\  /    A nd           | Version:  7  
     \\/     M anipulation  |
\*---------------------------------------------------------------------------*/
FoamFile
{
    version     2.0;
    format      ascii;
    class       dictionary;
    location    "constant";
    object      fvOptions;
}
// * * * * * * * * * * * * * * * * * * * * * * * * * * * * * * * * * * * * * //

source1
{
    type            fixedTemperatureConstraint;

    timeStart       0;
    duration        120;
    selectionMode   cellSet;
    cellSet         ignitionCells;

    mode            uniform;
    temperature     1000;
}


// limitT
// {
//     type            limitTemperature;
//     active          yes;
// 
//     selectionMode   all;
//     min             298;
//     max             2000;
// //     phase           gas; // optional
// }


// ************************************************************************* //
