/*--------------------------------*- C++ -*----------------------------------*\
  =========                 |
  \\      /  F ield         | OpenFOAM: The Open Source CFD Toolbox
   \\    /   O peration     | Website:  https://openfoam.org
    \\  /    A nd           | Version:  7  
     \\/     M anipulation  |
\*---------------------------------------------------------------------------*/
FoamFile
{
    version     2.0;
    format      ascii;
    class       dictionary;
    object      blockMeshDict;
}
// * * * * * * * * * * * * * * * * * * * * * * * * * * * * * * * * * * * * * //

convertToMeters 0.001;

vertices
(
    (0 0   0)
    (300 0   0)
    (300 600   0)
    (0 600   0)
    (0 0   25)
    (300 0   25)
    (300 600   25)
    (0 600   25)
);

blocks
(
    hex (0 1 2 3 4 5 6 7) (12 24 1) simpleGrading (1 1 1)
);

boundary
(
    bottom
    {
        type wall;
        faces
        (
            (0 1 5 4)
            
        );
    }

    top
    {
        type wall;
        faces
        (
            (2 3 7 6)
        );
    }

    walls
    {
        type wall;
        faces
        (           
            (1 2 6 5)
            (3 0 4 7)
            
        );
    }
    
    frontAndBack
    {
        type symmetry;
        faces
        (
            (0 1 2 3)
            (4 5 6 7)
        );
    }

);

// ************************************************************************* //
