/*--------------------------------*- C++ -*----------------------------------*\
| =========                 |                                                 |
| \\      /  F ield         | OpenFOAM: The Open Source CFD Toolbox           |
|  \\    /   O peration     | Version:  v1806                                 |
|   \\  /    A nd           | Web:      www.OpenFOAM.com                      |
|    \\/     M anipulation  |                                                 |
\*---------------------------------------------------------------------------*/
FoamFile
{
    version     2.0;
    format      ascii;
    class       dictionary;
    location    "system";
    object      fvSolution;
}
// * * * * * * * * * * * * * * * * * * * * * * * * * * * * * * * * * * * * * //

solvers
{
    "(rho|G)"
    {
        solver          PCG;
        preconditioner  DIC;
        tolerance       1e-05;
        relTol          0.1;
    }

   "(rho|G)Final"
    {
        $rho;
        tolerance       1e-05;
        relTol          0;
    }

//     p
//     {
//         solver          GAMG;
//         tolerance       1e-06;
//         relTol          0.01;
//         smoother        GaussSeidel;
//     }
    p
    {
        solver          PCG;
        preconditioner  DIC;
        tolerance       1e-6;
        relTol          0.01;
    }
    Ii
    {
        solver              GAMG;
        tolerance           1e-4;
        relTol              0;
        smoother            symGaussSeidel;
        maxIter             5;
        nPostSweeps         1;
    }

    pFinal
    {
        $p;
        tolerance       1e-06;
        relTol          0;
    }

    "(U|h|k|epsilon)"
    {
        solver          PBiCGStab;
        preconditioner  DILU;
        tolerance       1e-6;
        relTol          0.1;
    }

    "(U|h|k|epsilon)Final"
    {
        $U;
    }

//     Yi
//     {
//         solver          PBiCG;
//         preconditioner  DILU;
//         tolerance       1e-8;
//         relTol          0.1;
//     }
    "(Yi|CO2|O2|N2|CH4|H2|H2O|CO|tar|C2H4|C2H6|YSoot|IiFinal|NSoot)"
    {
        solver          PBiCGStab;
        preconditioner  DILU;
        tolerance       1e-7;
        relTol          0.1;
    }
    "(Yi|CO2|O2|N2|CH4|H2|H2O|CO|tar|C2H4|C2H6|YSoot|IiFinal|NSoot)Final"
    {
        solver          PBiCGStab;
        preconditioner  DILU;
        tolerance       1e-7;
        relTol          0;
    }
}

PIMPLE
{
//     transonic       no;
//     nCorrectors     3;
//     nNonOrthogonalCorrectors ;
//     momentumPredictor yes;
//     
    momentumPredictor   yes;
    transonic no;
    nOuterCorrectors    1;
    nCorrectors         2;
    nNonOrthogonalCorrectors 0;
}


relaxationFactors
{
    fields
    {
        ".*"            1;
    }
    equations
    {
        ".*"            1;
    }
}


// ************************************************************************* //
