/*--------------------------------*- C++ -*----------------------------------*\
| =========                 |                                                 |
| \\      /  F ield         | OpenFOAM: The Open Source CFD Toolbox           |
|  \\    /   O peration     | Version:  2.1.0                                 |
|   \\  /    A nd           | Web:      www.OpenFOAM.org                      |
|    \\/     M anipulation  |                                                 |
\*---------------------------------------------------------------------------*/
FoamFile
{
    version     2.0;
    format      ascii;
    class       dictionary;
    location    "constant";
    object      bioCloudProperties;
}
// * * * * * * * * * * * * * * * * * * * * * * * * * * * * * * * * * * * * * //

bedSettings
{
    gridOrigin (0 -0.1 0);

    gridVertex (0.41 0.31 0.01);
        
    gridSize 0.1;
}



particleProperties
{
    rhop    1030;// add
    
    
    active          true;
    transient       yes;
    coupled         true;
    cellValueSourceCorrection on;

    
}

constantProperties
{
    TMin            273;
    pMin            1000;
    minParticleMass 1e-15;

    rho0            7810;// add
    T0              338;// add
    Cp0             553;// add
    kp0             40.1;// add
    epsilon0        0.8;//particle emissivity []
    f0              0.5;

    Pr              0.7;
    constantVolume  false; // add

    
    deltaTime 1e-4;
    
//     hCoeff 58;
}

collapseSetting
{
    collapseThreshold   0.5;
    collapseTo          0.4;
    collapseTolerance   0.02;
}

subModels
{
    MomentumSource explicit;
    
    HeatSource explicit;
    
    integrationSchemes
    {
        Momentum        Euler;
        T               analytical;
    }
    
    particleForces
    {
        sphereDrag;
//         ErgunWenYuDrag
//         {
//             alphac alpha;
//         }
//         gravity;
    }

    
    heatTransferModel RanzMarshall;
    
    massTransferModel RanzMarshall;

    compositionModel singleMixtureFraction;

    dryingModel liquidEvaporation;

    devolatilisationModel DiBlasiDevolatilisation;

    surfaceReactionModel none;
    
    pyrolysisModel DiBlasiPyrolysis; //add

    charOxidizationModel COxidationKineticDiffusionLimitedRateWithAshSteam; //add

    surfaceFilmModel none;

    radiation       on;

    
    RanzMarshallCoeffs
    {
        BirdCorrection  false;
    }

    singleMixtureFractionCoeffs
    {
        phases
        (
            gas // number doesn't mean any thing
            {
                CH4             0.1;
                H2              0.1;
                CO2             0.1;
                CO              0.1;
                H2O             0.1;
                tar             0.5;
            }
            liquid
            {
                H2O             1.0;
            }
            solid
            {
                wood             0.9634; //name must be the wood, consume with H2O
                activeDryWood    0.0; // dry wood can devo
                C                0.0;  //name must be the C
                ash              0.0366; 
            }
        );
        YGasTot0        0.0;
        YLiquidTot0     0.098;
        YSolidTot0      0.902;
    }

    liquidEvaporationCoeffs
    {
        enthalpyTransfer enthalpyDifference;

        activeLiquids
        (
            H2O
        );
    }
    
    DiBlasiDevolatilisationCoeffs
    {
        // Wagenaar 1994
        devolKinetic1     (1.10E+11 1.77E+08 ); // (A1 E1 ) wood gas1
        devolKinetic2     (9.28E+09 1.49E+08 ); // (A2 E2 ) wood tar
        devolKinetic3     (3.05E+07 1.25E+08 ); // (A3 E3 ) wood char
        devolKinetic4	(4.28E+06 1.075E+08 ); // (A4 E4 ) tar light gas
        devolKinetic5	(1.0E+05  1.075E+08 ); // (A5 E5 ) tar char
        
        volgas //light gas
        (
            (H2O     0.2196 ) // (name weight_fraction)
            (H2     0.0047)   // (name weight_fraction )
            (CO      0.1270)   // (name weight_fraction)
            (CO2     0.2440)  // (name weight_fraction)
            (CH4     0.0355)   // (name weight_fraction)
            (tar     0.3692)   // (name weight_fraction)
        );
        
        residualCoeff   1E-06;
        
        secondReaction true;
    }

    

    COxidationKineticDiffusionLimitedRateWithAshSteamCoeffs
    {
        COmiga        3390.0;// activation energy in omega function
        ep3            0.65;//porosity of ash layer
        C1_O2           2.03e-10;//mass diffusion constant
        C1_H2O           8.48e-10;//mass diffusion constant
        C1_CO2           5.37e-10;//mass diffusion constant
        C1_H2           2.60e-9;//mass diffusion constant
        C2_1            1.715;//- Kinetics limited rate pre-exponential constant, C2
        C2_2            3.42;//- Kinetics limited rate pre-exponential constant, C2
        C2_3            3.42;//- Kinetics limited rate pre-exponential constant, C2
        C2_4            3.42e-3;//- Kinetics limited rate pre-exponential constant, C2
        E1              9000.0;//- Kinetics limited rate activation energy RR together
        E2              15600.0;//- Kinetics limited rate activation energy RR together
        E3              15600.0;//- Kinetics limited rate activation energy RR together
        E4              15600.0;//- Kinetics limited rate activation energy RR together
      //C1              5.0E-12; //mass diffusion constant, same value for O2, CO2, and H2O
        AO2              2.51E-03;//pre-exponential factor
        AH2O              2.0E-03;
        ACO2              3.0E-01;
        EO2               7.48E+07; //activation energy
        EH2O               1.96E+08;
        ECO2               2.00E+08;
    }

}


cloudFunctions
{}


// ************************************************************************* //
