/*--------------------------------*- C++ -*----------------------------------*\
  =========                 |
  \\      /  F ield         | OpenFOAM: The Open Source CFD Toolbox
   \\    /   O peration     | Website:  https://openfoam.org
    \\  /    A nd           | Version:  7
     \\/     M anipulation  |
\*---------------------------------------------------------------------------*/
FoamFile
{
    version     2.0;
    format      ascii;
    class       polyBoundaryMesh;
    location    "constant/polyMesh";
    object      boundary;
}
// * * * * * * * * * * * * * * * * * * * * * * * * * * * * * * * * * * * * * //

4
(
    bottom
    {
        type            wall;
        inGroups        List<word> 1(wall);
        nFaces          12;
        startFace       540;
    }
    top
    {
        type            wall;
        inGroups        List<word> 1(wall);
        nFaces          12;
        startFace       552;
    }
    walls
    {
        type            wall;
        inGroups        List<word> 1(wall);
        nFaces          48;
        startFace       564;
    }
    frontAndBack
    {
        type            symmetry;
        inGroups        List<word> 1(symmetry);
        nFaces          576;
        startFace       612;
    }
)

// ************************************************************************* //
